Circuit: * C:\Users\apm3\Documents\UTAS Projects\Teaching\gp-shield\Hardware\Electrical\Sim\power-supply.asc

WARNING: Node N010 is floating.

Direct Newton iteration failed to find .op point.  (Use ".option noopiter" to skip.)
Starting Gmin stepping
Gmin = 10
Gmin = 1.07374
Gmin = 0.115292
Gmin = 0.0123794
Gmin = 0.00132923
Gmin = 0.000142725
Gmin = 1.5325e-005
Gmin = 1.6455e-006
Gmin = 1.76685e-007
Gmin = 1.89714e-008
Gmin = 2.03704e-009
Gmin = 2.18725e-010
Gmin = 2.34854e-011
Gmin = 2.52173e-012
Gmin = 2.70769e-013
Gmin = 0
Gmin stepping succeeded in finding the operating point.

Direct Newton iteration failed to find .op point.  (Use ".option noopiter" to skip.)
Starting Gmin stepping
Gmin = 10
Gmin = 1.07374
Gmin = 0.115292
Gmin = 0.0123794
Gmin = 0.00132923
Gmin = 0.000142725
Gmin = 1.5325e-005
Gmin = 1.6455e-006
Gmin = 1.76685e-007
Gmin = 1.89714e-008
Gmin = 2.03704e-009
Gmin = 2.18725e-010
Gmin = 2.34854e-011
Gmin = 2.52173e-012
Gmin = 2.70769e-013
Gmin = 0
Gmin stepping succeeded in finding the operating point.

Direct Newton iteration failed to find .op point.  (Use ".option noopiter" to skip.)
Starting Gmin stepping
Gmin = 10
Gmin = 1.07374
Gmin = 0.115292
Gmin = 0.0123794
Gmin = 0.00132923
Gmin = 0.000142725
Gmin = 1.5325e-005
Gmin = 1.6455e-006
Gmin = 1.76685e-007
Gmin = 1.89714e-008
vernier = 0.5
vernier = 0.25
vernier = 0.125
vernier = 0.0625
vernier = 0.03125
Gmin = 7.77068e-009
vernier = 0.015625
vernier = 0.0078125
vernier = 0.00390625
vernier = 0.00520833
Gmin = 7.71275e-009
vernier = 0.00694444
Gmin = 7.59326e-009
vernier = 0.00925925
vernier = 0.0123457
Gmin = 7.39691e-009
vernier = 0.0164609
vernier = 0.0219478
Gmin = 7.09446e-009
vernier = 0.0292638
Gmin = 6.64384e-009
vernier = 0.0390184
vernier = 0.0520245
Gmin = 5.95218e-009
vernier = 0.0693659
vernier = 0.0924879
Gmin = 4.998e-009
vernier = 0.123317
Gmin = 3.8016e-009
vernier = 0.164423
vernier = 0.21923
Gmin = 2.4116e-009
vernier = 0.292307
vernier = 0.389743
Gmin = 1.17873e-009
vernier = 0.519657
Gmin = 3.90504e-010
vernier = 0.692876
vernier = 0.923834
Gmin = 6.52195e-011
vernier = 1
Gmin = 7.22122e-012
Gmin = 7.75373e-013
Gmin = 0
Gmin = 0
Gmin stepping succeeded in finding the operating point.

Direct Newton iteration failed to find .op point.  (Use ".option noopiter" to skip.)
Starting Gmin stepping
Gmin = 10
Gmin = 1.07374
Gmin = 0.115292
Gmin = 0.0123794
Gmin = 0.00132923
Gmin = 0.000142725
Gmin = 1.5325e-005
Gmin = 1.6455e-006
Gmin = 1.76685e-007
vernier = 0.5
vernier = 0.25
Gmin = 4.63168e-008
vernier = 0.333333
Gmin = 2.29236e-008
vernier = 0.444444
vernier = 0.592592
Gmin = 7.4299e-009
vernier = 0.790123
vernier = 1
Gmin = 1.33156e-009
Gmin = 1.42975e-010
Gmin = 1.53518e-011
Gmin = 1.64839e-012
Gmin = 1.76994e-013
Gmin = 0
Gmin stepping succeeded in finding the operating point.


Date: Thu Oct 27 18:06:34 2022
Total elapsed time: 0.276 seconds.

tnom = 27
temp = 27
method = trap
totiter = 5785
traniter = 0
tranpoints = 0
accept = 0
rejected = 0
matrix size = 32
fillins = 22
solver = Normal
Matrix Compiler1: 3.53 KB object code size  0.8/0.5/[0.2]
Matrix Compiler2: 3.05 KB object code size  0.2/0.4/[0.2]

